[General]
network = SuperMarket
sim-time-limit = 60s * 60 * 12