[General]
network = SuperMarket
sim-time-limit = 60s * 60 * 12
**.Checkout.C = 10
**.Checkout.p = 0.5
**.Classifier.K = 5
**.Queue.serviceTime = 3s
*.Source.interArrivalTime = exponential(10s)
*.Source.numberOfItems = exponential(15)


[Config Exponential]
*.Source.interArrivalTime = exponential(10s)
*.Source.numberOfItems = exponential(15)

[Config Lognormal]
*.Source.interArrivalTime = exponential(10s)
*.Source.numberOfItems = lognormal(10, 5)