[General]
network = SuperMarket
sim-time-limit = 60s * 60 * 60 * 12
**.checkout.C = 4
**.checkout.p = 0.5
**.classifier.K = 50
**.queues.serviceTime = 3s
**.source.interArrivalTime = exponential(10s)
**.source.numberOfItems = int(exponential(50))
**.classifier.policy = "equallylikely"


[Config Exponential]
*.Source.interArrivalTime = exponential(10s)
*.Source.numberOfItems = exponential(15)

[Config Lognormal]
*.Source.interArrivalTime = exponential(10s)
*.Source.numberOfItems = lognormal(10, 5)