[General]
network = SuperMarket
sim-time-limit = 60s * 60 * 24
repeat = 50
seed-set = ${repetition}
SuperMarket.C = 4
SuperMarket.checkout.p = 0.5
SuperMarket.checkout.classifier.K = 16
SuperMarket.checkout.queues.serviceTime = 3s
num-rngs = 3
SuperMarket.source.rng-0 = 0
SuperMarket.source.rng-1 = 1
SuperMarket.checkout.classifier.rng-0 = 2
SuperMarket.source.interArrivalTime = exponential(30s, 0)
SuperMarket.source.numberOfItems = int(exponential(19, 1)+1)
SuperMarket.checkout.classifier.policy = "jtsq"


[ConsistencyTest]
sim-time-limit = 60s * 60 * 24
repeat = 50
seed-set = ${repetition}
SuperMarket.C = 4
SuperMarket.checkout.p = 0.5
SuperMarket.checkout.queues[*].serviceTime = 3s
SuperMarket.checkout.classifier.policy = "jtsq"

[Slow]
extends = ConsistencyTest
SuperMarket.checkout.classifier.K = 16
SuperMarket.source.interArrivalTime = exponential(60s, 0)
SuperMarket.source.numberOfItems = int(exponential(39, 1)+1)

[Balanced]
extends = ConsistencyTest
SuperMarket.checkout.classifier.K = 8
SuperMarket.source.interArrivalTime = exponential(30s, 0)
SuperMarket.source.numberOfItems = int(exponential(19, 1)+1)

[Fast]
extends = ConsistencyTest
SuperMarket.checkout.classifier.K = 4
SuperMarket.source.interArrivalTime = exponential(15s, 0)
SuperMarket.source.numberOfItems = int(exponential(9, 1)+1)


[DegeneracyTest]
sim-time-limit = 60s * 60 * 24
repeat = 50
seed-set = ${repetition}
SuperMarket.C = 4
SuperMarket.checkout.queues[*].serviceTime = 3s
SuperMarket.checkout.classifier.policy = "jtsq"
SuperMarket.source.interArrivalTime = exponential(30s, 0)
SuperMarket.source.numberOfItems = int(exponential(19, 1)+1)

[K0]
extends = DegeneracyTest
SuperMarket.checkout.p = 0.5
SuperMarket.checkout.classifier.K = 0

[K1000]
extends = DegeneracyTest
SuperMarket.checkout.p = 0.5
SuperMarket.checkout.classifier.K = 1000

[p0]
extends = DegeneracyTest
SuperMarket.checkout.p = 0
SuperMarket.checkout.classifier.K = 0

[p1]
extends = DegeneracyTest
SuperMarket.checkout.p = 1
SuperMarket.checkout.classifier.K = 0


[ContinuityTest]
sim-time-limit = 60s * 60 * 24
repeat = 50
seed-set = ${repetition}
SuperMarket.C = 4
SuperMarket.checkout.p = 0.5
SuperMarket.checkout.classifier.K = 8
SuperMarket.checkout.queues[*].serviceTime = 3s
SuperMarket.checkout.classifier.policy = "jtsq"
SuperMarket.source.interArrivalTime = ${exponential(30s, 0), exponential(31s, 0), exponential(32s, 0), exponential(33s, 0), exponential(34s, 0), exponential(35s, 0)}
SuperMarket.source.numberOfItems = int(exponential(19, 1)+1)


[VerificationTheoreticalModel-Exponential]
sim-time-limit = 60s * 60 * 100
repeat = 50
seed-set = ${repetition}
SuperMarket.C = 4
SuperMarket.checkout.p = 0.5
SuperMarket.checkout.classifier.K = 8
SuperMarket.checkout.queues[*].serviceTime = 3s
SuperMarket.checkout.classifier.policy = "equallylikely"
SuperMarket.source.interArrivalTime = exponential(40s, 0)
SuperMarket.source.numberOfItems = (exponential(14, 1)+1)

[VerificationTheoreticalModel-Lognormal]
sim-time-limit = 60s * 60 * 24
repeat = 50
seed-set = ${repetition}
SuperMarket.C = 4
SuperMarket.checkout.p = 0.5
SuperMarket.checkout.classifier.K = 13
SuperMarket.checkout.queues[*].serviceTime = 3s
SuperMarket.checkout.classifier.policy = "equallylikely"
SuperMarket.source.interArrivalTime = exponential(40s, 0)
SuperMarket.source.numberOfItems = lognormal(2.674, 0.2621)

[Calibration]
sim-time-limit = 60s * 60 * 24
repeat = 50
seed-set = ${repetition}
SuperMarket.C = 10
SuperMarket.checkout.p = 0
SuperMarket.checkout.classifier.K = 0
SuperMarket.checkout.queues[*].serviceTime = 3s
SuperMarket.checkout.classifier.policy = "jtsq"
SuperMarket.source.interArrivalTime = ${exponential(9.23s, 0), exponential(9.24s, 0), exponential(9.25s, 0), exponential(9.26s, 0), exponential(9.27s, 0)}
SuperMarket.source.numberOfItems = (exponential(29, 1)+1)

[Warmup-Period]
sim-time-limit = 60s * 60 * 16
repeat = 50
seed-set = ${repetition}
SuperMarket.C = 10
SuperMarket.checkout.p = 0
SuperMarket.checkout.classifier.K = 0
SuperMarket.checkout.queues[*].serviceTime = 3s
SuperMarket.checkout.classifier.policy = "jtsq"
SuperMarket.source.interArrivalTime = exponential(9.26s, 0)
SuperMarket.source.numberOfItems = (exponential(29, 1)+1)
SuperMarket.checkout.localSink[*].totalServiceTime.result-recording-modes = +vector  # default plus vector

[FirstMainExperiment-Exponential]
sim-time-limit = 60s * 60 * 16
warmup-period = 10000s
repeat = 50
seed-set = ${repetition}
SuperMarket.C = 10
SuperMarket.checkout.p = ${0.1,0.2,0.3}
SuperMarket.checkout.classifier.K = ${13,14,15,16,17,18,19,20,21,22,23,24,25,26,27,28,29,30,31,32}
SuperMarket.checkout.queues[*].serviceTime = 3s
SuperMarket.checkout.classifier.policy = "jtsq"
SuperMarket.source.interArrivalTime = exponential(9.26s, 0)
SuperMarket.source.numberOfItems = (exponential(29, 1)+1)



[Config Exponential]
*.Source.interArrivalTime = exponential(10s)
*.Source.numberOfItems = exponential(15)

[Config Lognormal]
*.Source.interArrivalTime = exponential(10s)
*.Source.numberOfItems = lognormal(10, 5)