[General]
network = SuperMarket
sim-time-limit = 60s * 60 * 24
repeat = 50
seed-set = ${repetition}
SuperMarket.C = 4
SuperMarket.checkout.p = 0.5
SuperMarket.checkout.classifier.K = 16
SuperMarket.checkout.queues.serviceTime = 3s
num-rngs = 2
SuperMarket.source.rng-0 = 0
SuperMarket.source.rng-1 = 1
SuperMarket.source.interArrivalTime = exponential(30s, 0)
SuperMarket.source.numberOfItems = int(exponential(19, 1)+1)
SuperMarket.checkout.classifier.policy = "jtsq"


[ConsistencyTest]
sim-time-limit = 60s * 60 * 24
repeat = 50
seed-set = ${repetition}
SuperMarket.C = 4
SuperMarket.checkout.p = 0.5
SuperMarket.checkout.queues.serviceTime = 3s
SuperMarket.checkout.classifier.policy = "jtsq"

[Slow]
extends = ConsistencyTest
SuperMarket.checkout.classifier.K = 16
SuperMarket.source.interArrivalTime = exponential(60s, 0)
SuperMarket.source.numberOfItems = int(exponential(39, 1)+1)

[Balanced]
extends = ConsistencyTest
SuperMarket.checkout.classifier.K = 8
SuperMarket.source.interArrivalTime = exponential(30s, 0)
SuperMarket.source.numberOfItems = int(exponential(19, 1)+1)

[Fast]
extends = ConsistencyTest
SuperMarket.checkout.classifier.K = 4
SuperMarket.source.interArrivalTime = exponential(15s, 0)
SuperMarket.source.numberOfItems = int(exponential(9, 1)+1)

[DegeneracyTest]
sim-time-limit = 60s * 60 * 24
repeat = 50
seed-set = ${repetition}
SuperMarket.C = 4
SuperMarket.checkout.queues.serviceTime = 3s
SuperMarket.checkout.classifier.policy = "jtsq"
SuperMarket.source.interArrivalTime = exponential(30s, 0)
SuperMarket.source.numberOfItems = int(exponential(19, 1)+1)

[K0]
extends = DegeneracyTest
SuperMarket.checkout.p = 0.5
SuperMarket.checkout.classifier.K = 0

[K1000]
extends = DegeneracyTest
SuperMarket.checkout.p = 0.5
SuperMarket.checkout.classifier.K = 1000

[p0]
extends = DegeneracyTest
SuperMarket.checkout.p = 0
SuperMarket.checkout.classifier.K = 0

[p1]
extends = DegeneracyTest
SuperMarket.checkout.p = 1
SuperMarket.checkout.classifier.K = 1000


[ContinuityTest]
sim-time-limit = 60s * 60 * 24
repeat = 50
seed-set = ${repetition}
SuperMarket.C = 4
SuperMarket.checkout.p = 0.5
SuperMarket.checkout.classifier.K = 8
SuperMarket.checkout.queues.serviceTime = 3s
SuperMarket.checkout.classifier.policy = "jtsq"
SuperMarket.source.interArrivalTime = ${exponential(30s, 0), exponential(31s, 0), exponential(32s, 0), exponential(33s, 0), exponential(34s, 0), exponential(35s, 0)}
SuperMarket.source.numberOfItems = int(exponential(19, 1)+1)


[VerificationTheoreticalModel-Exponential]
sim-time-limit = 60s * 60 * 24
repeat = 50
seed-set = ${repetition}
SuperMarket.C = 4
SuperMarket.checkout.p = 0.5
SuperMarket.checkout.classifier.K = 8
SuperMarket.checkout.queues.serviceTime = 3s
SuperMarket.checkout.classifier.policy = "equallylikely"
SuperMarket.source.interArrivalTime = exponential(30s, 0)
SuperMarket.source.numberOfItems = int(exponential(19, 1)+1)





[Config Exponential]
*.Source.interArrivalTime = exponential(10s)
*.Source.numberOfItems = exponential(15)

[Config Lognormal]
*.Source.interArrivalTime = exponential(10s)
*.Source.numberOfItems = lognormal(10, 5)